01
  --CCDC--111824    3D                              

 82 86  0  0  0  0  0  0  0  0999 V2000
    3.6995    7.9249    1.3197 Ru     0
    2.6847    6.9053   -0.5436 Cl     0
    5.3388    8.6037    2.8770 Cl     0
    2.2775    5.7821    3.0882 N      0
    4.2300    9.6725   -0.0163 N      0
    4.0473    5.0613    2.0754 N      0
    3.3070    6.1732    2.3067 C      0
    3.5334    3.8400    2.7249 C      0
    4.1900    3.4716    3.3679 H      0
    3.3073    3.1455    2.0568 H      0
    2.2880    4.3487    3.4368 C      0
    1.4743    3.8934    3.1048 H      0
    2.3566    4.2188    4.4157 H      0
    1.2471    6.5870    3.6763 C      0
    0.0099    6.6915    3.0295 C      0
   -0.9822    7.4539    3.6449 C      0
   -1.8257    7.5422    3.2166 H      0
   -0.7792    8.0874    4.8586 C      0
    0.4630    7.9434    5.4822 C      0
    0.6112    8.3662    6.3200 H      0
    1.4917    7.1959    4.9085 C      0
   -0.2285    6.0133    1.7126 C      0
   -1.0782    6.3225    1.3347 H      0
   -0.2643    5.0432    1.8468 H      0
    0.5016    6.2310    1.0962 H      0
   -1.8626    8.9255    5.4840 C      0
   -2.7358    8.5185    5.3042 H      0
   -1.8385    9.8282    5.1029 H      0
   -1.7190    8.9760    6.4522 H      0
    2.8440    7.0999    5.5620 C      0
    3.5244    7.4676    4.9601 H      0
    3.0492    6.1611    5.7527 H      0
    2.8387    7.6099    6.3991 H      0
    5.3531    5.0226    1.4771 C      0
    5.5025    4.5267    0.1708 C      0
    6.7812    4.4873   -0.3716 C      0
    6.8958    4.1648   -1.2578 H      0
    7.8935    4.9032    0.3411 C      0
    7.7168    5.3201    1.6545 C      0
    8.4762    5.5934    2.1559 H      0
    6.4635    5.3521    2.2602 C      0
    4.3327    3.9914   -0.6165 C      0
    4.4451    4.2182   -1.5633 H      0
    3.5030    4.3917   -0.2813 H      0
    4.2894    3.0179   -0.5163 H      0
    9.2723    4.8467   -0.2673 C      0
    9.2838    5.3645   -1.0991 H      0
    9.5065    3.9148   -0.4591 H      0
    9.9223    5.2242    0.3616 H      0
    6.3619    5.6283    3.7299 C      0
    7.0744    6.2465    3.9961 H      0
    6.4549    4.7891    4.2272 H      0
    5.4902    6.0302    3.9272 H      0
    2.9537   10.1572   -0.6825 C      0
    2.4717    9.3334   -0.9800 H      0
    2.0502   10.8173    0.3398 C      0
    1.4090   12.0223    0.0579 C      0
    1.5920   12.4612   -0.7646 H      0
    0.5071   12.6024    0.9487 C      0
    0.0798   13.4201    0.7238 H      0
    0.2330   11.9945    2.1527 C      0
   -0.3758   12.3912    2.7647 H      0
    0.8587   10.7906    2.4619 C      0
    0.6637   10.3662    3.2890 H      0
    1.7731   10.1881    1.5793 C      0
    2.3613    8.9330    2.0354 C      0
    1.9857    8.5857    2.8357 H      0
    3.1699   10.9911   -1.9441 C      0
    3.7605   10.5070   -2.5583 H      0
    2.3075   11.1535   -2.3801 H      0
    3.5807   11.8477   -1.7032 H      0
    4.9084   10.8087    0.6495 C      0
    4.3118   11.1952    1.3242 H      0
    5.7285   10.4916    1.0818 H      0
    5.1330   11.4910   -0.0171 H      0
    5.1576    9.0972   -1.0418 C      0
    5.5909    9.8389   -1.5345 H      0
    4.6296    8.5707   -1.6929 H      0
    6.2363    8.2047   -0.4426 C      0
    6.8095    7.8599   -1.1585 H      0
    6.7775    8.7251    0.1875 H      0
    5.8156    7.4560    0.0290 H      0
  1  2  1
  3  1  1
  4  7  1
  5  1  1
  6  7  1
  7  1  1
  8  6  1
  9  8  1
 10  8  1
 11  4  1
 12 11  1
 13 11  1
 14  4  1
 15 14  4
 16 15  4
 17 16  1
 18 16  4
 19 18  4
 20 19  1
 21 14  4
 22 15  1
 23 22  1
 24 22  1
 25 22  1
 26 18  1
 27 26  1
 28 26  1
 29 26  1
 30 21  1
 31 30  1
 32 30  1
 33 30  1
 34  6  1
 35 34  4
 36 35  4
 37 36  1
 38 36  4
 39 38  4
 40 39  1
 41 34  4
 42 35  1
 43 42  1
 44 42  1
 45 42  1
 46 38  1
 47 46  1
 48 46  1
 49 46  1
 50 41  1
 51 50  1
 52 50  1
 53 50  1
 54  5  1
 55 54  1
 56 54  1
 57 56  4
 58 57  1
 59 57  4
 60 59  1
 61 59  4
 62 61  1
 63 61  4
 64 63  1
 65 56  4
 66  1  2
 67 66  1
 68 54  1
 69 68  1
 70 68  1
 71 68  1
 72  5  1
 73 72  1
 74 72  1
 75 72  1
 76  5  1
 77 76  1
 78 76  1
 79 76  1
 80 79  1
 81 79  1
 82 79  1
  8 11  1
 19 21  4
 39 41  4
 63 65  4
 65 66  1
M  END
$$$$
