03
  --CCDC--111824    3D                              

 75 79  0  0  0  0  0  0  0  0999 V2000
   -7.9851    8.2127   27.2536 Ru     0
   -9.6234    9.1499   28.6398 Cl     0
   -5.9374    7.3717   26.4799 Cl     0
   -7.9142    6.5705   28.7724 O      0
   -7.2956   10.8367   26.2752 N      0
   -8.5917    9.9251   24.7814 N      0
   -8.0064    9.7155   25.9680 C      0
   -7.5313   11.9418   25.3164 C      0
   -6.6976   12.3478   25.0317 H      0
   -8.1059   12.6248   25.6997 H      0
   -8.2183   11.2207   24.1656 C      0
   -9.0024   11.7058   23.8643 H      0
   -7.6130   11.0947   23.4178 H      0
   -6.5637   11.0082   27.4896 C      0
   -5.2074   10.6565   27.5243 C      0
   -4.5387   10.7312   28.7512 C      0
   -3.6422   10.4879   28.7919 H      0
   -5.1740   11.1606   29.9084 C      0
   -6.4814   11.5974   29.8161 C      0
   -6.8988   11.9330   30.5778 H      0
   -7.1967   11.5519   28.6113 C      0
   -4.4288   10.2607   26.2947 C      0
   -5.0142   10.2593   25.5344 H      0
   -4.0606    9.3828   26.4174 H      0
   -3.7180   10.8895   26.1495 H      0
   -4.4580   11.1181   31.2402 C      0
   -5.0365   11.4625   31.9238 H      0
   -3.6638   11.6531   31.1929 H      0
   -4.2226   10.2109   31.4475 H      0
   -8.5739   12.1455   28.5521 C      0
   -8.9308   12.0400   27.6675 H      0
   -8.5293   13.0806   28.7688 H      0
   -9.1427   11.6985   29.1822 H      0
   -9.4931    9.0355   24.1120 C      0
   -8.9877    8.1063   23.1999 C      0
   -9.8813    7.2020   22.6172 C      0
   -9.5598    6.5659   22.0189 H      0
  -11.2462    7.2328   22.9122 C      0
  -11.7141    8.2118   23.7846 C      0
  -12.6280    8.2704   23.9470 H      0
  -10.8569    9.1058   24.4232 C      0
   -7.5194    8.0477   22.8936 C      0
   -7.2592    8.8420   22.4224 H      0
   -7.3359    7.2782   22.3496 H      0
   -7.0230    7.9861   23.7122 H      0
  -12.2047    6.2479   22.2779 C      0
  -11.7217    5.6587   21.6948 H      0
  -12.8674    6.7257   21.7742 H      0
  -12.6362    5.7335   22.9647 H      0
  -11.3654   10.0702   25.4620 C      0
  -10.6402   10.6169   25.7725 H      0
  -11.7376    9.5807   26.1991 H      0
  -12.0442   10.6286   25.0747 H      0
   -9.0737    6.9866   26.4419 C      0
   -9.5228    7.1917   25.6534 H      0
   -7.3776    6.6216   30.1432 C      0
   -6.8363    5.8229   30.3099 H      0
   -6.4948    7.8439   30.1756 C      0
   -5.8033    7.7560   29.5162 H      0
   -6.0971    7.9290   31.0441 H      0
   -7.0214    8.6236   29.9858 H      0
   -8.5121    6.6920   31.1671 C      0
   -9.0527    5.9035   31.1003 H      0
   -9.0517    7.4673   30.9945 H      0
   -8.1405    6.7521   32.0494 H      0
   -8.5819    5.4755   28.3134 C      0
   -8.6448    4.2444   28.9510 C      0
   -8.2348    4.1140   29.7774 H      0
   -9.3283    3.2170   28.3273 C      0
   -9.3709    2.3831   28.7390 H      0
   -9.9596    3.3987   27.0957 C      0
  -10.4115    2.6923   26.6919 H      0
   -9.9081    4.6343   26.4832 C      0
  -10.3430    4.7618   25.6733 H      0
   -9.2120    5.6910   27.0639 C      0
  1  2  1
  3  1  1
  4  1  1
  5  7  1
  6  7  1
  7  1  1
  8  5  1
  9  8  1
 10  8  1
 11  6  1
 12 11  1
 13 11  1
 14  5  1
 15 14  4
 16 15  4
 17 16  1
 18 16  4
 19 18  4
 20 19  1
 21 14  4
 22 15  1
 23 22  1
 24 22  1
 25 22  1
 26 18  1
 27 26  1
 28 26  1
 29 26  1
 30 21  1
 31 30  1
 32 30  1
 33 30  1
 34  6  1
 35 34  4
 36 35  4
 37 36  1
 38 36  4
 39 38  4
 40 39  1
 41 34  4
 42 35  1
 43 42  1
 44 42  1
 45 42  1
 46 38  1
 47 46  1
 48 46  1
 49 46  1
 50 41  1
 51 50  1
 52 50  1
 53 50  1
 54  1  2
 55 54  1
 56  4  1
 57 56  1
 58 56  1
 59 58  1
 60 58  1
 61 58  1
 62 56  1
 63 62  1
 64 62  1
 65 62  1
 66  4  1
 67 66  4
 68 67  1
 69 67  4
 70 69  1
 71 69  4
 72 71  1
 73 71  4
 74 73  1
 75 54  1
  8 11  1
 19 21  4
 39 41  4
 66 75  4
 73 75  4
M  END
$$$$
