02
  --CCDC--111824    3D                              

 75 79  0  0  0  0  0  0  0  0999 V2000
   15.3281   10.8094    2.8190 Ru     0
   16.1125    9.7532    0.8893 Cl     0
   13.8381   11.8376    4.2716 Cl     0
   15.2420   12.7162    1.5847 O      0
   16.0205    8.8600    5.0611 N      0
   14.2258    8.3706    3.9406 N      0
   15.2739    9.2153    3.9955 C      0
   15.5284    7.6458    5.7382 C      0
   15.4105    7.7993    6.7097 H      0
   16.1449    6.8830    5.6014 H      0
   14.1961    7.4047    5.0530 C      0
   14.1282    6.4758    4.7201 H      0
   13.4398    7.5856    5.6654 H      0
   17.3113    9.3824    5.3898 C      0
   17.4259   10.3114    6.4278 C      0
   18.6828   10.8551    6.6839 C      0
   18.7790   11.4844    7.3887 H      0
   19.7960   10.5030    5.9376 C      0
   19.6473    9.5677    4.9218 C      0
   20.4060    9.3206    4.4064 H      0
   18.4142    8.9799    4.6365 C      0
   16.2074   10.7454    7.2054 C      0
   16.4423   11.4985    7.7870 H      0
   15.8856    9.9991    7.7520 H      0
   15.5033   11.0212    6.5817 H      0
   21.1581   11.0919    6.2253 C      0
   21.0509   11.9682    6.6498 H      0
   21.6528   11.1937    5.3867 H      0
   21.6513   10.4951    6.8253 H      0
   18.2872    7.9970    3.5080 C      0
   17.8640    7.1759    3.8368 H      0
   19.1769    7.7878    3.1557 H      0
   17.7371    8.3863    2.7966 H      0
   13.3108    8.2246    2.8418 C      0
   13.6860    7.3800    1.7822 C      0
   12.7903    7.1725    0.7434 C      0
   13.0386    6.6048    0.0227 H      0
   11.5345    7.7763    0.7319 C      0
   11.1823    8.5828    1.8016 C      0
   10.3315    9.0048    1.7956 H      0
   12.0320    8.7991    2.8890 C      0
   15.0014    6.6507    1.8034 C      0
   15.0634    6.0663    1.0196 H      0
   15.0620    6.1110    2.6191 H      0
   15.7351    7.3001    1.7853 H      0
   10.5520    7.4772   -0.3742 C      0
   10.2824    6.5363   -0.3261 H      0
   10.9724    7.6516   -1.2425 H      0
    9.7630    8.0487   -0.2724 H      0
   11.5022    9.5326    4.0917 C      0
   11.2118   10.4294    3.8244 H      0
   12.2079    9.6039    4.7676 H      0
   10.7404    9.0411    4.4642 H      0
   16.8681   11.6414    3.3592 C      0
   17.4499   11.2221    3.9812 H      0
   14.1200   13.2559    0.8078 C      0
   14.4714   13.6994   -0.0165 H      0
   13.2818   12.0702    0.4134 C      0
   13.8239   11.4475   -0.1156 H      0
   12.5189   12.3728   -0.1218 H      0
   12.9578   11.6169    1.2198 H      0
   13.3440   14.2664    1.6274 C      0
   13.9297   15.0153    1.8616 H      0
   13.0161   13.8402    2.4457 H      0
   12.5844   14.5975    1.1042 H      0
   16.3107   13.5193    1.8837 C      0
   16.5794   14.7704    1.3291 C      0
   15.9951   15.1523    0.6852 H      0
   17.7188   15.4425    1.7390 C      0
   17.9105   16.2954    1.3663 H      0
   18.5874   14.9069    2.6760 C      0
   19.3562   15.3929    2.9493 H      0
   18.3232   13.6571    3.2098 C      0
   18.9215   13.2802    3.8450 H      0
   17.1831   12.9464    2.8213 C      0
  1  2  1
  3  1  1
  4  1  1
  5  7  1
  6  7  1
  7  1  1
  8  5  1
  9  8  1
 10  8  1
 11  6  1
 12 11  1
 13 11  1
 14  5  1
 15 14  4
 16 15  4
 17 16  1
 18 16  4
 19 18  4
 20 19  1
 21 14  4
 22 15  1
 23 22  1
 24 22  1
 25 22  1
 26 18  1
 27 26  1
 28 26  1
 29 26  1
 30 21  1
 31 30  1
 32 30  1
 33 30  1
 34  6  1
 35 34  4
 36 35  4
 37 36  1
 38 36  4
 39 38  4
 40 39  1
 41 34  4
 42 35  1
 43 42  1
 44 42  1
 45 42  1
 46 38  1
 47 46  1
 48 46  1
 49 46  1
 50 41  1
 51 50  1
 52 50  1
 53 50  1
 54  1  2
 55 54  1
 56  4  1
 57 56  1
 58 56  1
 59 58  1
 60 58  1
 61 58  1
 62 56  1
 63 62  1
 64 62  1
 65 62  1
 66  4  1
 67 66  4
 68 67  1
 69 67  4
 70 69  1
 71 69  4
 72 71  1
 73 71  4
 74 73  1
 75 54  1
  8 11  1
 19 21  4
 39 41  4
 66 75  4
 73 75  4
M  END
$$$$
