01
  --CCDC--111824    3D                              

 75 79  0  0  0  0  0  0  0  0999 V2000
    6.2257    5.7579    5.1790 Ru     0
    4.5992    5.0488    6.6868 Cl     0
    8.3101    6.5816    4.5080 Cl     0
    7.3390    3.8555    5.6779 O      0
    4.9153    7.9601    3.5213 N      0
    5.3262    8.5024    5.5905 N      0
    5.3676    7.4804    4.6998 C      0
    4.4812    9.3687    3.5849 C      0
    4.8418    9.7687    5.0094 C      0
    4.6246    7.2042    2.3452 C      0
    5.5633    7.1485    1.3098 C      0
    5.2757    6.3535    0.1949 C      0
    4.0781    5.6459    0.0879 C      0
    3.1381    5.7755    1.1113 C      0
    3.3896    6.5440    2.2498 C      0
    6.8557    7.9088    1.3973 C      0
    3.8094    4.7399   -1.0886 C      0
    2.3922    6.5901    3.3734 C      0
    5.4334    8.3934    7.0162 C      0
    4.2544    8.1423    7.7472 C      0
    4.3304    8.1045    9.1345 C      0
    5.5332    8.3192    9.8135 C      0
    6.6759    8.5678    9.0661 C      0
    6.6514    8.6327    7.6632 C      0
    2.9262    7.9406    7.0744 C      0
    5.5532    8.3196   11.3212 C      0
    7.9135    8.9939    6.9256 C      0
    5.7944    4.7241    3.7307 C      0
    7.9743    3.4418    6.9306 C      0
    8.1616    4.7093    7.7422 C      0
    7.1016    2.4258    7.6425 C      0
    7.2779    2.9826    4.6273 C      0
    7.9703    1.7801    4.5263 C      0
    7.7972    1.0089    3.3732 C      0
    6.9480    1.4209    2.3455 C      0
    6.2604    2.6207    2.4645 C      0
    6.4286    3.4266    3.5981 C      0
    4.9483    9.8850    2.9191 H      0
    3.5653    9.4435    3.4552 H      0
    5.4857   10.4042    5.0726 H      0
    4.0721   10.0840    5.5133 H      0
    5.9147    6.2825   -0.4793 H      0
    2.3301    5.2482    1.0109 H      0
    6.6925    8.8828    1.4062 H      0
    7.3816    7.6806    0.6383 H      0
    7.3374    7.6879    2.1172 H      0
    4.3786    4.8948   -1.7901 H      0
    2.9257    4.8368   -1.4107 H      0
    3.9137    3.8616   -0.8996 H      0
    1.6188    6.0618    3.1962 H      0
    2.7889    6.2017    4.1798 H      0
    2.0877    7.4112    3.5892 H      0
    3.5334    7.9097    9.6000 H      0
    7.5101    8.6579    9.5137 H      0
    2.2984    7.3759    7.6191 H      0
    2.4819    8.7771    6.8513 H      0
    2.9500    7.3749    6.3197 H      0
    5.1096    7.5179   11.6331 H      0
    6.4203    8.2392   11.6808 H      0
    5.1732    9.2352   11.6377 H      0
    8.3081    9.7928    7.2897 H      0
    8.5034    8.3387    7.0376 H      0
    7.7764    9.0787    6.0085 H      0
    5.1905    4.9404    3.0690 H      0
    8.8229    3.0480    6.7104 H      0
    7.2855    5.1011    8.0235 H      0
    8.6612    4.5290    8.5573 H      0
    8.6728    5.3633    7.2670 H      0
    6.2549    2.8127    7.9099 H      0
    6.9241    1.6872    7.1080 H      0
    7.5773    2.1360    8.4301 H      0
    8.5604    1.5183    5.1589 H      0
    8.2953    0.1637    3.2712 H      0
    6.8417    0.8395    1.5879 H      0
    5.6742    2.9008    1.7583 H      0
  1  2  1
  3  1  1
  4  1  1
  5  7  1
  6  7  1
  7  1  1
  8  5  1
  9  6  1
 10  5  1
 11 10  4
 12 11  4
 13 12  4
 14 13  4
 15 10  4
 16 11  1
 17 13  1
 18 15  1
 19  6  1
 20 19  4
 21 20  4
 22 21  4
 23 22  4
 24 19  4
 25 20  1
 26 22  1
 27 24  1
 28  1  2
 29  4  1
 30 29  1
 31 29  1
 32  4  1
 33 32  4
 34 33  4
 35 34  4
 36 35  4
 37 28  1
 38  8  1
 39  8  1
 40  9  1
 41  9  1
 42 12  1
 43 14  1
 44 16  1
 45 16  1
 46 16  1
 47 17  1
 48 17  1
 49 17  1
 50 18  1
 51 18  1
 52 18  1
 53 21  1
 54 23  1
 55 25  1
 56 25  1
 57 25  1
 58 26  1
 59 26  1
 60 26  1
 61 27  1
 62 27  1
 63 27  1
 64 28  1
 65 29  1
 66 30  1
 67 30  1
 68 30  1
 69 31  1
 70 31  1
 71 31  1
 72 33  1
 73 34  1
 74 35  1
 75 36  1
  8  9  1
 14 15  4
 23 24  4
 32 37  4
 36 37  4
M  END
$$$$
