02
  --CCDC--111824    3D                              

 77 81  0  0  0  0  0  0  0  0999 V2000
    8.6412    6.2498   14.6322 Ru     0
    9.6469    7.8684   15.9775 Cl     0
    7.5785    4.2837   13.9650 Cl     0
   10.3484    4.9241   15.2163 O      0
   11.3976    2.2259   17.2743 O      0
    6.5821    7.8253   13.0366 N      0
    6.0652    7.4536   15.1046 N      0
    7.0296    7.2913   14.1759 C      0
    5.2637    8.4585   13.1562 C      0
    4.6453    8.1111   12.4937 H      0
    5.3247    9.4218   13.0633 H      0
    4.8442    8.0654   14.5617 C      0
    4.5812    8.8422   15.0795 H      0
    4.1110    7.4311   14.5438 H      0
    7.3545    8.0148   11.8472 C      0
    8.1997    9.1256   11.7650 C      0
    8.9615    9.2599   10.6257 C      0
    9.5181   10.0005   10.5471 H      0
    8.9340    8.3388    9.5935 C      0
    8.0611    7.2696    9.7006 C      0
    8.0106    6.6536    9.0059 H      0
    7.2641    7.0942   10.8186 C      0
    8.3279   10.1065   12.9062 C      0
    8.6627    9.6516   13.6830 H      0
    7.4663   10.4817   13.1026 H      0
    8.9344   10.8074   12.6580 H      0
    9.8029    8.5205    8.3916 C      0
    9.5374    9.3153    7.9219 H      0
    9.7083    7.7605    7.8112 H      0
   10.7179    8.6011    8.6666 H      0
    6.3208    5.9213   10.9079 C      0
    6.2210    5.5236   10.0399 H      0
    5.4647    6.2220   11.2222 H      0
    6.6748    5.2703   11.5186 H      0
    6.1688    7.1488   16.5029 C      0
    5.7629    5.9009   16.9886 C      0
    5.8671    5.6860   18.3565 C      0
    5.6246    4.8553   18.6976 H      0
    6.3195    6.6582   19.2316 C      0
    6.6665    7.8872   18.7173 C      0
    6.9710    8.5485   19.2959 H      0
    6.5774    8.1699   17.3636 C      0
    5.1369    4.8628   16.1153 C      0
    5.4058    3.9910   16.4118 H      0
    5.4214    4.9938   15.2081 H      0
    4.1809    4.9382   16.1653 H      0
    6.3867    6.3624   20.7138 C      0
    7.0648    5.7032   20.8781 H      0
    5.5372    6.0293   21.0139 H      0
    6.6003    7.1678   21.1907 H      0
    6.8783    9.5531   16.8654 C      0
    6.0668    9.9672   16.5618 H      0
    7.5024    9.5019   16.1368 H      0
    7.2570   10.0741   17.5761 H      0
    9.7114    6.4689   13.1705 C      0
    9.4211    6.9464   12.4276 H      0
   10.5562    4.2517   16.4796 C      0
   11.3316    4.6591   16.9207 H      0
    9.3321    4.4906   17.3440 C      0
    9.3236    5.4029   17.6422 H      0
    9.3596    3.9063   18.1065 H      0
    8.5391    4.3129   16.8332 H      0
   10.7917    2.7928   16.3725 C      0
   10.2495    2.0924   15.2242 C      0
   10.9004    2.0826   14.5188 H      0
    9.4567    2.5422   14.9224 H      0
   10.0315    1.1916   15.4724 H      0
   11.0234    5.8758   13.2116 C      0
   11.9772    6.0734   12.2097 C      0
   11.7655    6.5960   11.4704 H      0
   13.2425    5.4978   12.3044 C      0
   13.8763    5.6343   11.6383 H      0
   13.5405    4.7207   13.4062 C      0
   14.3796    4.3247   13.4616 H      0
   12.6300    4.5108   14.4331 C      0
   12.8565    4.0060   15.1796 H      0
   11.3744    5.0762   14.3063 C      0
  1  2  1
  3  1  1
  4  1  1
  5 63  2
  6  8  4
  7  8  4
  8  1  1
  9  6  1
 10  9  1
 11  9  1
 12  7  1
 13 12  1
 14 12  1
 15  6  1
 16 15  4
 17 16  4
 18 17  1
 19 17  4
 20 19  4
 21 20  1
 22 15  4
 23 16  1
 24 23  1
 25 23  1
 26 23  1
 27 19  1
 28 27  1
 29 27  1
 30 27  1
 31 22  1
 32 31  1
 33 31  1
 34 31  1
 35  7  1
 36 35  4
 37 36  4
 38 37  1
 39 37  4
 40 39  4
 41 40  1
 42 35  4
 43 36  1
 44 43  1
 45 43  1
 46 43  1
 47 39  1
 48 47  1
 49 47  1
 50 47  1
 51 42  1
 52 51  1
 53 51  1
 54 51  1
 55  1  2
 56 55  1
 57  4  1
 58 57  1
 59 57  1
 60 59  1
 61 59  1
 62 59  1
 63 57  1
 64 63  1
 65 64  1
 66 64  1
 67 64  1
 68 55  1
 69 68  4
 70 69  1
 71 69  4
 72 71  1
 73 71  4
 74 73  1
 75 73  4
 76 75  1
 77  4  1
  9 12  1
 20 22  4
 40 42  4
 68 77  4
 75 77  4
M  END
$$$$
