01
  --CCDC--111824    3D                              

 79 83  0  0  0  0  0  0  0  0999 V2000
    6.2965    7.8834    7.6824 Ru     0
    4.5094    8.5146    6.3093 Cl     0
    7.3954    6.8616    9.4862 Cl     0
    7.6634    5.7166    5.9221 N      0
    5.7889    9.6392    9.0240 N      0
    5.8536    5.0567    6.8902 N      0
    6.6399    6.1344    6.6887 C      0
    6.3501    3.8214    6.2634 C      0
    5.7034    3.4607    5.6369 H      0
    6.5573    3.1478    6.9300 H      0
    7.5926    4.2887    5.5560 C      0
    8.3753    3.8078    5.8677 H      0
    7.5124    4.1765    4.5959 H      0
    8.6958    6.5028    5.3199 C      0
    8.4421    7.1172    4.0981 C      0
    9.4615    7.8648    3.5198 C      0
    9.3052    8.2916    2.7084 H      0
   10.7150    7.9926    4.1242 C      0
   10.9238    7.3493    5.3203 C      0
   11.7555    7.4260    5.7292 H      0
    9.9422    6.5896    5.9433 C      0
    7.0886    7.0303    3.4511 C      0
    6.8825    6.1114    3.2627 H      0
    7.0923    7.5314    2.6325 H      0
    6.4263    7.3912    4.0447 H      0
   11.7870    8.8393    3.4833 C      0
   12.6442    8.4307    3.6244 H      0
   11.7810    9.7147    3.8770 H      0
   11.6175    8.9106    2.5412 H      0
   10.2151    5.8879    7.2339 C      0
   11.0771    6.1503    7.5651 H      0
   10.2031    4.9384    7.0907 H      0
    9.5406    6.1230    7.8751 H      0
    4.5505    5.0597    7.4967 C      0
    3.4493    5.3706    6.7030 C      0
    2.2040    5.3909    7.3108 C      0
    1.4625    5.6445    6.8103 H      0
    2.0318    5.0475    8.6304 C      0
    3.1168    4.6576    9.3595 C      0
    2.9962    4.3975   10.2442 H      0
    4.3968    4.6388    8.8189 C      0
    3.5669    5.6007    5.2219 C      0
    2.8598    6.1814    4.9312 H      0
    3.5015    4.7612    4.7613 H      0
    4.4147    6.0072    5.0275 H      0
    0.6384    5.0963    9.2555 C      0
    0.2618    4.2136    9.2655 H      0
    0.0769    5.6782    8.7379 H      0
    0.7027    5.4281   10.1534 H      0
    5.5392    4.0948    9.6274 C      0
    6.3606    4.2245    9.1481 H      0
    5.4034    3.1573    9.7824 H      0
    5.5832    4.5552   10.4687 H      0
    7.0474   10.0914    9.7123 C      0
    7.5026    9.2753   10.0079 H      0
    7.9700   10.7442    8.7098 C      0
    8.6367   11.9255    9.0055 C      0
    8.4707   12.3425    9.8201 H      0
    9.5330   12.4996    8.1366 C      0
    9.9660   13.2877    8.3745 H      0
    9.7916   11.9242    6.9297 C      0
   10.3963   12.3161    6.3415 H      0
    9.1437   10.7482    6.5885 C      0
    9.3223   10.3527    5.7659 H      0
    8.2246   10.1413    7.4564 C      0
    7.6248    8.9092    6.9714 C      0
    7.9749    8.5938    6.1696 H      0
    6.8092   10.9280   10.9807 C      0
    7.6536   11.1784   11.3624 H      0
    6.3133   11.7183   10.7543 H      0
    6.3114   10.4096   11.6173 H      0
    4.8408    9.0141    9.9678 C      0
    5.2610    8.2628   10.3927 H      0
    4.5829    9.6556   10.6339 H      0
    4.0625    8.7180    9.4904 H      0
    5.1092   10.7927    8.3874 C      0
    5.7085   11.2155    7.7681 H      0
    4.3292   10.4861    7.9193 H      0
    4.8496   11.4237    9.0628 H      0
  1  2  1
  3  1  1
  4  7  1
  5  1  1
  6  7  1
  7  1  1
  8  6  1
  9  8  1
 10  8  1
 11  4  1
 12 11  1
 13 11  1
 14  4  1
 15 14  4
 16 15  4
 17 16  1
 18 16  4
 19 18  4
 20 19  1
 21 14  4
 22 15  1
 23 22  1
 24 22  1
 25 22  1
 26 18  1
 27 26  1
 28 26  1
 29 26  1
 30 21  1
 31 30  1
 32 30  1
 33 30  1
 34  6  1
 35 34  4
 36 35  4
 37 36  1
 38 36  4
 39 38  4
 40 39  1
 41 34  4
 42 35  1
 43 42  1
 44 42  1
 45 42  1
 46 38  1
 47 46  1
 48 46  1
 49 46  1
 50 41  1
 51 50  1
 52 50  1
 53 50  1
 54  5  1
 55 54  1
 56 54  1
 57 56  4
 58 57  1
 59 57  4
 60 59  1
 61 59  4
 62 61  1
 63 61  4
 64 63  1
 65 56  4
 66  1  2
 67 66  1
 68 54  1
 69 68  1
 70 68  1
 71 68  1
 72  5  1
 73 72  1
 74 72  1
 75 72  1
 76  5  1
 77 76  1
 78 76  1
 79 76  1
  8 11  1
 19 21  4
 39 41  4
 63 65  4
 65 66  1
M  END
$$$$
