01
  --CCDC--111824    3D                              

 80 85  0  0  0  0  0  0  0  0999 V2000
    5.8095    5.6890   17.8195 Ru     0
    7.8628    6.6783   17.2424 Cl     0
    3.9869    5.0844   19.1918 Cl     0
    4.6907    7.9181   15.9526 N      0
    6.9049    3.9717   18.7105 N      0
    4.9267    8.5148   18.0222 N      0
    4.9956    7.4515   17.1828 C      0
    4.6170    9.7914   17.3531 C      0
    5.3900   10.4093   17.3816 H      0
    3.8323   10.2325   17.7650 H      0
    4.3177    9.3482   15.9327 C      0
    3.3590    9.4656   15.7153 H      0
    4.8631    9.8519   15.2778 H      0
    4.9350    8.4608   19.4598 C      0
    3.7159    8.1970   20.1132 C      0
    3.7147    8.1749   21.5034 C      0
    2.9070    7.9697   21.9596 H      0
    4.8595    8.4439   22.2479 C      0
    6.0275    8.7526   21.5747 C      0
    6.8096    8.9484   22.0771 H      0
    6.0949    8.7861   20.1753 C      0
    2.4373    7.9825   19.3441 C      0
    1.7479    7.6343   19.9473 H      0
    2.5947    7.3388   18.6219 H      0
    2.1383    8.8343   18.9631 H      0
    4.8123    8.4134   23.7569 C      0
    5.6426    8.7881   24.1176 H      0
    4.7127    7.4868   24.0616 H      0
    4.0505    8.9437   24.0709 H      0
    7.3809    9.1977   19.5119 C      0
    8.0864    8.5571   19.7410 H      0
    7.6375   10.0910   19.8226 H      0
    7.2568    9.2131   18.5399 H      0
    4.4666    7.1753   14.7457 C      0
    3.2124    6.5816   14.5360 C      0
    2.9688    5.9710   13.3062 C      0
    2.1210    5.5734   13.1455 H      0
    3.9428    5.9301   12.3040 C      0
    5.1782    6.5005   12.5632 C      0
    5.8576    6.4428   11.9018 H      0
    5.4597    7.1580   13.7631 C      0
    2.1606    6.5935   15.6174 C      0
    1.3679    6.1076   15.3075 H      0
    1.9157    7.5195   15.8248 H      0
    2.5147    6.1612   16.4225 H      0
    3.6443    5.3230   10.9552 C      0
    3.1442    5.9662   10.4107 H      0
    3.1097    4.5102   11.0739 H      0
    4.4851    5.0979   10.5048 H      0
    6.7846    7.8491   13.9670 C      0
    7.3779    7.6477   13.2136 H      0
    7.1938    7.5325   14.7992 H      0
    6.6428    8.8177   14.0209 H      0
    6.2718    3.4944   15.8605 C      0
    7.4144    2.9618   16.5055 C      0
    8.0797    1.8758   15.9361 C      0
    8.8433    1.5181   16.3737 H      0
    7.6518    1.3058   14.7447 C      0
    8.1299    0.5788   14.3636 H      0
    6.5201    1.8049   14.1143 C      0
    6.2120    1.4118   13.3063 H      0
    5.8393    2.8834   14.6690 C      0
    5.0635    3.2156   14.2327 H      0
    7.9751    3.5344   17.7738 C      0
    8.5379    2.8519   18.2184 H      0
    8.5520    4.3085   17.5545 H      0
    5.5207    4.6634   16.3298 C      0
    4.7852    4.9239   15.7878 H      0
    7.5425    4.4771   19.9764 C      0
    7.0003    5.2040   20.3736 H      0
    8.4525    4.8220   19.7945 H      0
    7.6009    3.2778   20.9141 C      0
    7.6919    3.5574   21.8593 H      0
    8.3436    2.6665   20.6790 H      0
    6.2336    2.6350   20.6437 C      0
    6.2148    1.6917   20.9420 H      0
    5.5074    3.1338   21.0955 H      0
    6.1140    2.7383   19.1253 C      0
    6.4856    1.9285   18.6940 H      0
    5.1649    2.8311   18.8593 H      0
  1  2  1
  3  1  1
  4  7  1
  5  1  1
  6  7  1
  7  1  1
  8  6  1
  9  8  1
 10  8  1
 11  4  1
 12 11  1
 13 11  1
 14  6  1
 15 14  4
 16 15  4
 17 16  1
 18 16  4
 19 18  4
 20 19  1
 21 14  4
 22 15  1
 23 22  1
 24 22  1
 25 22  1
 26 18  1
 27 26  1
 28 26  1
 29 26  1
 30 21  1
 31 30  1
 32 30  1
 33 30  1
 34  4  1
 35 34  4
 36 35  4
 37 36  1
 38 36  4
 39 38  4
 40 39  1
 41 34  4
 42 35  1
 43 42  1
 44 42  1
 45 42  1
 46 38  1
 47 46  1
 48 46  1
 49 46  1
 50 41  1
 51 50  1
 52 50  1
 53 50  1
 54 55  4
 55 56  4
 56 57  1
 58 56  4
 59 58  1
 60 58  4
 61 60  1
 62 54  4
 63 62  1
 64  5  1
 65 64  1
 66 64  1
 67  1  2
 68 67  1
 69  5  1
 70 69  1
 71 69  1
 72 69  1
 73 72  1
 74 72  1
 75 72  1
 76 75  1
 77 75  1
 78  5  1
 79 78  1
 80 78  1
  8 11  1
 19 21  4
 39 41  4
 54 67  1
 55 64  1
 60 62  4
 75 78  1
M  END
$$$$
