
 OpenBabel09232413163D

 62 65  0  0  1  0  0  0  0  0999 V2000
    8.8229   -3.1480    1.5261 C   0  0  0  0  0  0  0  0  0  0  0  0
    7.6930   -2.2236    1.1191 C   0  0  0  0  0  0  0  0  0  0  0  0
    7.8590   -1.8886   -0.2580 O   0  0  0  0  0  0  0  0  0  0  0  0
    6.9502   -1.0065   -0.7764 C   0  0  0  0  0  0  0  0  0  0  0  0
    5.8431   -0.4996   -0.1063 C   0  0  0  0  0  0  0  0  0  0  0  0
    4.9662    0.3676   -0.7573 C   0  0  0  0  0  0  0  0  0  0  0  0
    5.1676    0.7221   -2.0951 C   0  0  0  0  0  0  0  0  0  0  0  0
    4.2844    1.5001   -2.8022 O   0  0  0  0  0  0  0  0  0  0  0  0
    2.9586    1.5840   -2.2692 C   0  0  0  0  0  0  0  0  0  0  0  0
    2.0001    2.0041   -3.3677 C   0  0  0  0  0  0  0  0  0  0  0  0
    6.3260    0.2794   -2.7671 C   0  0  0  0  0  0  0  0  0  0  0  0
    6.6585    0.7651   -4.1881 C   0  0  1  0  0  0  0  0  0  0  0  0
    7.6176    1.9433   -4.1722 C   0  0  0  0  0  0  0  0  0  0  0  0
    7.1361    3.1450   -3.5584 C   0  0  0  0  0  0  0  0  0  0  0  0
    6.7798    4.1207   -3.0290 N   0  0  0  0  0  0  0  0  0  0  0  0
    8.8408    1.9071   -4.7927 C   0  0  0  0  0  0  0  0  0  0  0  0
    9.5042    3.1243   -4.9093 N   0  0  0  0  0  0  0  0  0  0  0  0
    9.3576    0.6834   -5.3490 N   0  0  0  0  0  0  0  0  0  0  0  0
   10.7513    0.6230   -5.8131 C   0  0  0  0  0  0  0  0  0  0  0  0
   11.0372    0.0462   -7.0779 C   0  0  0  0  0  0  0  0  0  0  0  0
   12.3314   -0.1275   -7.5874 C   0  0  0  0  0  0  0  0  0  0  0  0
   13.4065    0.4108   -6.9133 C   0  0  0  0  0  0  0  0  0  0  0  0
   13.1769    1.0658   -5.7147 C   0  0  0  0  0  0  0  0  0  0  0  0
   11.8821    1.1328   -5.1136 C   0  0  0  0  0  0  0  0  0  0  0  0
   11.8941    1.8125   -3.7609 C   0  0  0  0  0  0  0  0  0  0  0  0
   10.8274    1.5896   -2.9547 F   0  0  0  0  0  0  0  0  0  0  0  0
   12.9829    1.4542   -3.0144 F   0  0  0  0  0  0  0  0  0  0  0  0
   12.0018    3.1705   -3.8946 F   0  0  0  0  0  0  0  0  0  0  0  0
    8.4283   -0.4204   -5.5399 C   0  0  0  0  0  0  0  0  0  0  0  0
    7.1537   -0.3520   -5.0769 C   0  0  0  0  0  0  0  0  0  0  0  0
    6.1090   -1.3620   -5.4577 C   0  0  0  0  0  0  0  0  0  0  0  0
    4.9329   -1.2138   -5.1297 O   0  0  0  0  0  0  0  0  0  0  0  0
    6.5059   -2.5016   -6.3535 C   0  0  0  0  0  0  0  0  0  0  0  0
    7.9225   -2.9108   -6.0256 C   0  0  0  0  0  0  0  0  0  0  0  0
    8.8560   -1.7183   -6.2275 C   0  0  0  0  0  0  0  0  0  0  0  0
    7.1974   -0.6005   -2.0890 C   0  0  0  0  0  0  0  0  0  0  0  0
    8.7226   -3.4389    2.5755 H   0  0  0  0  0  0  0  0  0  0  0  0
    9.7903   -2.6553    1.3859 H   0  0  0  0  0  0  0  0  0  0  0  0
    8.8274   -4.0499    0.9057 H   0  0  0  0  0  0  0  0  0  0  0  0
    7.7369   -1.3178    1.7353 H   0  0  0  0  0  0  0  0  0  0  0  0
    6.7375   -2.7393    1.2732 H   0  0  0  0  0  0  0  0  0  0  0  0
    5.6203   -0.7599    0.9230 H   0  0  0  0  0  0  0  0  0  0  0  0
    4.1276    0.7524   -0.1873 H   0  0  0  0  0  0  0  0  0  0  0  0
    2.9412    2.3302   -1.4661 H   0  0  0  0  0  0  0  0  0  0  0  0
    2.6182    0.6150   -1.8827 H   0  0  0  0  0  0  0  0  0  0  0  0
    2.3400    2.9131   -3.8655 H   0  0  0  0  0  0  0  0  0  0  0  0
    0.9977    2.1721   -2.9552 H   0  0  0  0  0  0  0  0  0  0  0  0
    1.9295    1.2186   -4.1283 H   0  0  0  0  0  0  0  0  0  0  0  0
    5.7393    1.1342   -4.6651 H   0  0  0  0  0  0  0  0  0  0  0  0
    9.5568    3.6611   -4.0397 H   0  0  0  0  0  0  0  0  0  0  0  0
   10.3821    3.1156   -5.4098 H   0  0  0  0  0  0  0  0  0  0  0  0
   10.2387   -0.2667   -7.7381 H   0  0  0  0  0  0  0  0  0  0  0  0
   12.4821   -0.6560   -8.5260 H   0  0  0  0  0  0  0  0  0  0  0  0
   14.4115    0.3376   -7.3259 H   0  0  0  0  0  0  0  0  0  0  0  0
   14.0307    1.5299   -5.2160 H   0  0  0  0  0  0  0  0  0  0  0  0
    6.4080   -2.1748   -7.3957 H   0  0  0  0  0  0  0  0  0  0  0  0
    5.8255   -3.3426   -6.1891 H   0  0  0  0  0  0  0  0  0  0  0  0
    8.2300   -3.7347   -6.6806 H   0  0  0  0  0  0  0  0  0  0  0  0
    7.9876   -3.2720   -4.9925 H   0  0  0  0  0  0  0  0  0  0  0  0
    8.8784   -1.5565   -7.3091 H   0  0  0  0  0  0  0  0  0  0  0  0
    9.8480   -2.0279   -5.8831 H   0  0  0  0  0  0  0  0  0  0  0  0
    8.0865   -0.9866   -2.5827 H   0  0  0  0  0  0  0  0  0  0  0  0
  1  2  1  0  0  0  0
  1 37  1  0  0  0  0
  1 38  1  0  0  0  0
  1 39  1  0  0  0  0
  2  3  1  0  0  0  0
  2 40  1  0  0  0  0
  2 41  1  0  0  0  0
  3  4  1  0  0  0  0
  4  5  1  0  0  0  0
  4 36  2  0  0  0  0
  5  6  2  0  0  0  0
  5 42  1  0  0  0  0
  6  7  1  0  0  0  0
  6 43  1  0  0  0  0
  7  8  1  0  0  0  0
  7 11  2  0  0  0  0
  8  9  1  0  0  0  0
  9 10  1  0  0  0  0
  9 44  1  0  0  0  0
  9 45  1  0  0  0  0
 10 46  1  0  0  0  0
 10 47  1  0  0  0  0
 10 48  1  0  0  0  0
 11 12  1  0  0  0  0
 11 36  1  0  0  0  0
 12 13  1  0  0  0  0
 12 30  1  0  0  0  0
 12 49  1  6  0  0  0
 13 14  1  0  0  0  0
 13 16  2  0  0  0  0
 14 15  3  0  0  0  0
 16 17  1  0  0  0  0
 16 18  1  0  0  0  0
 17 50  1  0  0  0  0
 17 51  1  0  0  0  0
 18 19  1  0  0  0  0
 18 29  1  0  0  0  0
 19 20  1  0  0  0  0
 19 24  2  0  0  0  0
 20 21  2  0  0  0  0
 20 52  1  0  0  0  0
 21 22  1  0  0  0  0
 21 53  1  0  0  0  0
 22 23  2  0  0  0  0
 22 54  1  0  0  0  0
 23 24  1  0  0  0  0
 23 55  1  0  0  0  0
 24 25  1  0  0  0  0
 25 26  1  0  0  0  0
 25 27  1  0  0  0  0
 25 28  1  0  0  0  0
 29 30  2  0  0  0  0
 29 35  1  0  0  0  0
 30 31  1  0  0  0  0
 31 32  2  0  0  0  0
 31 33  1  0  0  0  0
 33 34  1  0  0  0  0
 33 56  1  0  0  0  0
 33 57  1  0  0  0  0
 34 35  1  0  0  0  0
 34 58  1  0  0  0  0
 34 59  1  0  0  0  0
 35 60  1  0  0  0  0
 35 61  1  0  0  0  0
 36 62  1  0  0  0  0
M  END
$$$$
