01
  --CCDC--111924    3D                              

 14 14  0  0  0  0  0  0  0  0999 V2000
    1.3121   -3.9483    5.3274 C      0
    0.4178   -4.8227    6.1850 C      0
    0.7803   -5.1183    7.5192 C      0
    0.0557   -5.9070    8.3756 C      0
    0.5548   -6.2025    9.7913 C      0
   -1.8897   -7.3303    8.8184 C      0
   -2.6320   -6.8869    9.9160 C      0
   -3.3139   -9.0293   10.2936 C      0
   -1.9885   -8.6605    8.4945 C      0
   -2.7441   -9.5286    9.2204 N      0
   -3.3034   -7.7550   10.6886 N      0
   -2.7015   -5.5592   10.2516 N      0
   -1.1387   -6.4559    7.9922 N      0
   -0.6369   -5.2537    5.6583 O      0
  1  2  1
  2  3  1
  3  4  2
  4  5  1
  6  7  4
  7 11  4
  8 10  4
  9  6  4
 10  9  4
 11  8  4
 12  7  1
 13  4  1
 14  2  2
  6 13  1
M  END
$$$$
